Version 4
SHEET 1 904 680
WIRE 112 -192 -16 -192
WIRE 160 -192 112 -192
WIRE 208 -192 160 -192
WIRE 416 -192 208 -192
WIRE 112 -128 112 -192
WIRE -16 -32 -16 -192
WIRE 112 -32 112 -64
WIRE 416 -16 416 -192
WIRE 208 32 208 -192
WIRE -16 96 -16 48
WIRE 64 96 -16 96
WIRE 416 96 416 64
WIRE 416 96 352 96
WIRE 464 96 416 96
WIRE 560 96 528 96
WIRE 592 96 560 96
WIRE 688 96 656 96
WIRE 800 96 688 96
WIRE 848 96 800 96
WIRE 560 128 560 96
WIRE 688 128 688 96
WIRE 848 128 848 96
WIRE 64 176 -112 176
WIRE 480 176 352 176
WIRE 64 256 -16 256
WIRE 416 256 352 256
WIRE 512 256 416 256
WIRE 560 256 560 208
WIRE 688 256 688 192
WIRE 848 256 848 208
WIRE -112 304 -112 176
WIRE -16 304 -16 256
WIRE 416 304 416 256
WIRE 480 336 480 176
WIRE 528 336 480 336
WIRE 800 336 800 96
WIRE 800 336 608 336
WIRE 208 384 208 320
WIRE -112 432 -112 368
WIRE -16 432 -16 384
WIRE 416 432 416 384
WIRE 512 432 512 256
WIRE 416 544 416 496
WIRE 512 544 512 496
FLAG 208 384 0
FLAG 112 -32 0
FLAG 160 -192 Vdd
FLAG 416 544 0
FLAG -16 432 0
FLAG -112 432 0
FLAG 560 256 0
FLAG 688 256 0
FLAG 512 544 0
FLAG 848 256 0
SYMBOL PowerProducts\\LT8570 208 176 R0
SYMATTR InstName U1
SYMBOL cap 96 -128 R0
SYMATTR InstName C1
SYMATTR Value 2.2µ
SYMBOL res -32 -48 R0
SYMATTR InstName R1
SYMATTR Value 100k
SYMBOL res -32 288 R0
SYMATTR InstName R2
SYMATTR Value 121k
SYMBOL cap -128 304 R0
SYMATTR InstName C2
SYMATTR Value 100n
SYMBOL res 400 288 R0
SYMATTR InstName R3
SYMATTR Value 20.5k
SYMBOL cap 400 432 R0
SYMATTR InstName C3
SYMATTR Value 2.2n
SYMBOL cap 496 432 R0
SYMATTR InstName C4
SYMATTR Value 47µ
SYMBOL ind 400 -32 R0
SYMATTR InstName L2
SYMATTR Value 1m
SYMBOL cap 528 80 R90
WINDOW 0 0 32 VBottom 2
WINDOW 3 32 32 VTop 2
SYMATTR InstName C5
SYMATTR Value 10µ
SYMBOL ind 544 112 R0
SYMATTR InstName L3
SYMATTR Value 1m
SYMATTR SpiceLine Rser=5
SYMBOL schottky 592 112 R270
WINDOW 0 32 32 VTop 2
WINDOW 3 0 32 VBottom 2
SYMATTR InstName D1
SYMATTR Value 1N5817
SYMATTR Description Diode
SYMATTR Type diode
SYMBOL res 624 320 R90
WINDOW 0 0 56 VBottom 2
WINDOW 3 32 56 VTop 2
SYMATTR InstName R4
SYMATTR Value 490k
SYMBOL cap 672 128 R0
SYMATTR InstName C6
SYMATTR Value 2.2µ
SYMBOL res 832 112 R0
SYMATTR InstName R5
SYMATTR Value 1k
TEXT -132 568 Left 2 !.tran 1
