Version 4
SHEET 1 1712 980
WIRE 1072 0 960 0
WIRE 1568 0 1360 0
WIRE 1072 48 1072 0
WIRE 1360 48 1360 0
WIRE 1568 48 1568 0
WIRE -688 64 -944 64
WIRE -528 64 -688 64
WIRE -384 64 -528 64
WIRE -352 64 -384 64
WIRE -224 64 -272 64
WIRE 208 64 -224 64
WIRE 320 64 272 64
WIRE 384 64 320 64
WIRE 512 64 448 64
WIRE 624 64 512 64
WIRE 848 64 624 64
WIRE 960 64 960 0
WIRE 960 64 848 64
WIRE 320 112 320 64
WIRE 512 112 512 64
WIRE 624 112 624 64
WIRE -944 128 -944 64
WIRE -688 128 -688 64
WIRE -384 128 -384 64
WIRE -224 128 -224 64
WIRE 1072 144 1072 112
WIRE 1360 144 1360 112
WIRE 1568 144 1568 112
WIRE -528 192 -528 64
WIRE -464 192 -528 192
WIRE -48 192 -144 192
WIRE 64 192 16 192
WIRE -688 240 -688 192
WIRE 64 240 64 192
WIRE 848 240 848 64
WIRE 1072 240 1072 208
WIRE 1360 240 1360 208
WIRE 1568 240 1568 208
WIRE -944 256 -944 208
WIRE -464 288 -560 288
WIRE 64 288 -144 288
WIRE 320 288 320 192
WIRE 512 288 512 176
WIRE 624 288 624 192
WIRE -560 320 -560 288
WIRE 1072 336 1072 304
WIRE 1360 336 1360 304
WIRE 1568 336 1568 304
WIRE 848 368 848 320
WIRE 848 368 672 368
WIRE -464 384 -624 384
WIRE -16 384 -144 384
WIRE -16 416 -16 384
WIRE 1072 432 1072 400
WIRE 1360 432 1360 400
WIRE 1568 432 1568 400
WIRE 848 464 848 368
WIRE -464 480 -528 480
WIRE -96 480 -144 480
WIRE 64 480 64 288
WIRE 672 480 672 368
WIRE 672 480 64 480
WIRE -16 544 -16 496
WIRE -624 560 -624 384
WIRE -528 560 -528 480
WIRE 1072 560 1072 496
WIRE 1360 560 1360 496
WIRE 1360 560 1072 560
WIRE -96 576 -96 480
WIRE 1568 576 1568 496
WIRE -960 592 -960 496
WIRE -304 624 -304 544
WIRE 848 656 848 544
WIRE -16 672 -16 608
WIRE -624 704 -624 640
WIRE -528 704 -528 624
WIRE -960 736 -960 672
FLAG -944 256 0
FLAG -624 704 0
FLAG -304 624 0
FLAG 320 288 0
FLAG 512 288 0
FLAG 624 288 0
FLAG 1568 576 0
FLAG -560 320 0
FLAG -96 576 0
FLAG -528 704 0
FLAG -16 672 0
FLAG 64 240 0
FLAG -960 736 0
FLAG -960 496 Vdd
FLAG -688 240 0
FLAG 848 656 0
SYMBOL voltage -944 112 R0
WINDOW 123 0 0 Left 0
WINDOW 39 0 0 Left 0
SYMATTR InstName V1
SYMATTR Value 12
SYMBOL ind -368 80 R270
WINDOW 0 32 56 VTop 2
WINDOW 3 5 56 VBottom 2
SYMATTR InstName L1
SYMATTR Value 330µ
SYMATTR SpiceLine Rser=5
SYMBOL cap 272 48 R90
WINDOW 0 0 32 VBottom 2
WINDOW 3 32 32 VTop 2
SYMATTR InstName C1
SYMATTR Value 10µ
SYMBOL ind 304 96 R0
SYMATTR InstName L2
SYMATTR Value 330µ
SYMATTR SpiceLine Rser=5
SYMBOL schottky 384 80 R270
WINDOW 0 32 32 VTop 2
WINDOW 3 0 32 VBottom 2
SYMATTR InstName D1
SYMATTR Value 1N5817
SYMATTR Description Diode
SYMATTR Type diode
SYMBOL cap 496 112 R0
SYMATTR InstName C2
SYMATTR Value 100µ
SYMBOL res 608 96 R0
SYMATTR InstName R1
SYMATTR Value 100k
SYMBOL LED 1056 144 R0
SYMATTR InstName D3
SYMATTR Value LUW-W5AP
SYMBOL LED 1056 48 R0
SYMATTR InstName D2
SYMATTR Value LUW-W5AP
SYMBOL LED 1056 240 R0
SYMATTR InstName D4
SYMATTR Value LUW-W5AP
SYMBOL LED 1056 336 R0
SYMATTR InstName D5
SYMATTR Value LUW-W5AP
SYMBOL LED 1056 432 R0
SYMATTR InstName D6
SYMATTR Value LUW-W5AP
SYMBOL LED 1376 400 R180
WINDOW 0 24 64 Left 2
WINDOW 3 24 0 Left 2
SYMATTR InstName D7
SYMATTR Value LUW-W5AP
SYMBOL LED 1376 496 R180
WINDOW 0 24 64 Left 2
WINDOW 3 24 0 Left 2
SYMATTR InstName D8
SYMATTR Value LUW-W5AP
SYMBOL LED 1376 304 R180
WINDOW 0 24 64 Left 2
WINDOW 3 24 0 Left 2
SYMATTR InstName D9
SYMATTR Value LUW-W5AP
SYMBOL LED 1376 208 R180
WINDOW 0 24 64 Left 2
WINDOW 3 24 0 Left 2
SYMATTR InstName D10
SYMATTR Value LUW-W5AP
SYMBOL LED 1376 112 R180
WINDOW 0 24 64 Left 2
WINDOW 3 24 0 Left 2
SYMATTR InstName D11
SYMATTR Value LUW-W5AP
SYMBOL LED 1552 144 R0
SYMATTR InstName D12
SYMATTR Value LUW-W5AP
SYMBOL LED 1552 48 R0
SYMATTR InstName D13
SYMATTR Value LUW-W5AP
SYMBOL LED 1552 240 R0
SYMATTR InstName D14
SYMATTR Value LUW-W5AP
SYMBOL LED 1552 336 R0
SYMATTR InstName D15
SYMATTR Value LUW-W5AP
SYMBOL LED 1552 432 R0
SYMATTR InstName D16
SYMATTR Value LUW-W5AP
SYMBOL PowerProducts\\LT8361 -304 336 R0
SYMATTR InstName U1
SYMBOL cap -544 560 R0
SYMATTR InstName C3
SYMATTR Value 220n
SYMBOL res -640 544 R0
SYMATTR InstName R8
SYMATTR Value 121k
SYMBOL res -32 400 R0
SYMATTR InstName R7
SYMATTR Value 16.2k
SYMBOL cap -32 544 R0
SYMATTR InstName C4
SYMATTR Value 6.8n
SYMBOL cap 16 176 R90
WINDOW 0 0 32 VBottom 2
WINDOW 3 32 32 VTop 2
SYMATTR InstName C5
SYMATTR Value 1µ
SYMBOL voltage -960 576 R0
WINDOW 123 0 0 Left 0
WINDOW 39 0 0 Left 0
SYMATTR InstName V2
SYMATTR Value 12
SYMBOL cap -704 128 R0
SYMATTR InstName C6
SYMATTR Value 100µ
SYMBOL res 832 224 R0
SYMATTR InstName R2
SYMATTR Value 1k
SYMBOL res 832 448 R0
SYMATTR InstName R3
SYMATTR Value 10k
TEXT -832 408 Left 2 !.tran 1m
